data_image0
_chemical_formula_structural       Cr2I6
_chemical_formula_sum              "Cr2 I6"
_cell_length_a       6.822643942393844
_cell_length_b       6.822643942393844
_cell_length_c       13.838304524094669
_cell_angle_alpha    90.0
_cell_angle_beta     90.0
_cell_angle_gamma    59.9999999879446

_space_group_name_H-M_alt    "P 1"
_space_group_IT_number       1

loop_
  _space_group_symop_operation_xyz
  'x, y, z'

loop_
  _atom_site_type_symbol
  _atom_site_label
  _atom_site_symmetry_multiplicity
  _atom_site_fract_x
  _atom_site_fract_y
  _atom_site_fract_z
  _atom_site_occupancy
  Cr  Cr1       1.0  0.33333333359013684  0.3333333335901369  0.4999999998520531  1.0000
  Cr  Cr2       1.0  0.6666666663340471  0.6666666663340473  0.4999999998520531  1.0000
  I   I1        1.0  0.3539257606845298  9.895632706997976e-10  0.38810716881166235  1.0000
  I   I2        1.0  0.9999999989785096  0.35392576177354096  0.611892830892444  1.0000
  I   I3        1.0  0.6460742382939799  0.3539257607839776  0.38810716881166235  1.0000
  I   I4        1.0  0.35392576163020417  0.6460742391402065  0.611892830892444  1.0000
  I   I5        1.0  9.456744851946361e-10  0.646074238150643  0.38810716881166235  1.0000
  I   I6        1.0  0.6460742392396541  0.9999999989346209  0.611892830892444  1.0000
